Circuit: * C:\Users\tofutaco\Documents\ELECTENG209\Project Code\electeng209\LTSpice\pcb_sim.asc

Per .tran options, skipping operating point for transient analysis.
Ignoring empty pin current: Ix(u2:3)

Date: Sat Aug 20 17:13:39 2016
Total elapsed time: 0.189 seconds.

tnom = 27
temp = 27
method = modified trap
totiter = 3371
traniter = 3371
tranpoints = 1067
accept = 837
rejected = 230
matrix size = 32
fillins = 10
solver = Normal
Matrix Compiler1: 3.14 KB object code size  1.8/0.7/[0.6]
Matrix Compiler2: 3.04 KB object code size  0.8/0.7/[0.4]


